### 
### Created by X-TOOL on Mon Nov 18 14:10:29 2013
### 

@<TRIPOS>MOLECULE
3fk1 ligand
   16    15     1     0     0
SMALL
GAST_HUCK


@<TRIPOS>ATOM
      1 C1         60.1760    7.9310   28.2330 C.3       1 GPF         0.0369
      2 C2         60.4590    7.9900   30.6950 C.3       1 GPF         0.0207
      3 C3         60.9730    8.8470   31.7490 C.2       1 GPF         0.0813
      4 O1         60.6310   10.2720   27.1240 O.co2     1 GPF        -0.5587
      5 O2         59.5320    8.3940   25.8470 O.co2     1 GPF        -0.5587
      6 O3         62.0050    8.2870   26.4600 O.co2     1 GPF        -0.5587
      7 O4         61.5270    9.9790   31.4260 O.co2     1 GPF        -0.5645
      8 P1         60.6030    8.7900   26.8280 P.3       1 GPF         0.1070
      9 O5         60.8270    8.4300   32.8680 O.co2     1 GPF        -0.5645
     10 N1         60.7100    8.5820   29.3970 N.4       1 GPF         0.2507
     11 H1         60.5801    6.9098   28.1709 H         1 GPF         0.1013
     12 H2         59.0798    7.8873   28.3125 H         1 GPF         0.1013
     13 H3         59.3753    7.8589   30.8303 H         1 GPF         0.0989
     14 H4         60.9565    7.0104   30.7491 H         1 GPF         0.0989
     15 H5         60.3299    9.5153   29.4169 H         1 GPF         0.2042
     16 H6         61.7100    8.6289   29.2795 H         1 GPF         0.2042
@<TRIPOS>BOND
     1    1    8 1  
     2   10    1 1  
     3    2    3 1  
     4    2   10 1  
     5    3    7 ar 
     6    3    9 ar 
     7    8    4 ar 
     8    8    5 ar 
     9    8    6 ar 
    10    1   11 1  
    11    1   12 1  
    12    2   13 1  
    13    2   14 1  
    14   10   15 1  
    15   10   16 1  
@<TRIPOS>SUBSTRUCTURE
     1 GPF         1

