3fk1_ligand
  -I-interpret- 

 16 15  0  0  0  0  0  0  0  0999 V2000
   60.1760    7.9310   28.2330 C   0  0  0  0  0
   60.4590    7.9900   30.6950 C   0  0  0  0  0
   60.9730    8.8470   31.7490 C   0  0  0  0  0
   60.6310   10.2720   27.1240 O   0  5  0  0  0
   59.5320    8.3940   25.8470 O   0  0  0  0  0
   62.0050    8.2870   26.4600 O   0  5  0  0  0
   61.5270    9.9790   31.4260 O   0  5  0  0  0
   60.6030    8.7900   26.8280 P   0  0  0  0  0
   60.8270    8.4300   32.8680 O   0  0  0  0  0
   60.7100    8.5820   29.3970 N   0  3  0  0  0
   60.5801    6.9098   28.1709 H   0  0  0  0  0
   59.0798    7.8873   28.3125 H   0  0  0  0  0
   59.3753    7.8589   30.8303 H   0  0  0  0  0
   60.9565    7.0104   30.7491 H   0  0  0  0  0
   60.3299    9.5153   29.4169 H   0  0  0  0  0
   61.7100    8.6289   29.2795 H   0  0  0  0  0
  1  8  1  0  0  0
 10  1  1  0  0  0
  2  3  1  0  0  0
  2 10  1  0  0  0
  3  7  1  0  0  0
  3  9  2  0  0  0
  8  4  1  0  0  0
  8  5  2  0  0  0
  8  6  1  0  0  0
  1 11  1  0  0  0
  1 12  1  0  0  0
  2 13  1  0  0  0
  2 14  1  0  0  0
 10 15  1  0  0  0
 10 16  1  0  0  0
M  END
$$$$
