### 
### Created by X-TOOL on Mon Nov 18 15:13:12 2013
### 

@<TRIPOS>MOLECULE
3ov1 ligand
   58    59     1     0     0
SMALL
GAST_HUCK


@<TRIPOS>ATOM
      1 C         -13.6590   13.3310   -2.4890 C.2       1 ACT         0.1753
      2 O         -14.1780   12.2070   -2.5230 O.2       1 ACT        -0.3972
      3 CH3       -13.7790   14.2530   -3.6690 C.3       1 ACT         0.0258
      4 N         -12.9990   13.8210   -1.4770 N.am      1 ACT        -0.2628
      5 CA        -12.7650   12.9410   -0.2770 C.3       1 ACT         0.1465
      6 C         -13.1440   13.6920    1.0160 C.2       1 ACT         0.2045
      7 O         -12.8720   14.8890    1.1720 O.2       1 ACT        -0.3944
      8 CB        -11.2870   12.5730   -0.1190 C.3       1 ACT         0.0400
      9 CG        -10.8580   11.8380   -1.4220 C.ar      1 ACT        -0.0004
     10 CD1       -10.3740   12.5930   -2.4720 C.ar      1 ACT        -0.0239
     11 CD2       -11.0310   10.4590   -1.5710 C.ar      1 ACT        -0.0239
     12 CE1       -10.0200   12.0200   -3.6690 C.ar      1 ACT         0.0115
     13 CE2       -10.7120    9.9050   -2.8250 C.ar      1 ACT         0.0115
     14 CZ        -10.2140   10.6580   -3.8910 C.ar      1 ACT         0.1728
     15 OH         -9.8950   10.1540   -5.1580 O.3       1 ACT        -0.2040
     16 P         -10.2270    8.6340   -5.6580 P.3       1 ACT         0.1348
     17 O1P       -10.0090    8.8150   -7.1890 O.co2     1 ACT        -0.6653
     18 O2P        -9.1790    7.7540   -5.0650 O.co2     1 ACT        -0.6653
     19 O3P       -11.6280    8.4060   -5.4010 O.co2     1 ACT        -0.6653
     20 CB        -15.5160   14.3000    3.1210 C.3       1 ACT        -0.0184
     21 CG        -15.3340   13.0410    3.9310 C.3       1 ACT        -0.0184
     22 CA        -14.1810   13.6370    3.1400 C.3       1 ACT         0.1329
     23 C         -13.0700   14.1400    4.0390 C.2       1 ACT         0.2267
     24 O         -13.2960   15.0480    4.8690 O.2       1 ACT        -0.3419
     25 N         -13.7640   12.9400    1.9640 N.am      1 ACT        -0.2738
     26 N         -11.8530   13.5910    3.8970 N.am      1 ACT        -0.2608
     27 CA        -10.7050   14.0510    4.6390 C.3       1 ACT         0.1474
     28 C          -9.7330   14.7920    3.6830 C.2       1 ACT         0.2017
     29 O          -8.5470   14.9650    4.0270 O.2       1 ACT        -0.3945
     30 CB        -10.0330   12.8660    5.3610 C.3       1 ACT         0.0774
     31 CG         -9.5220   11.7930    4.3970 C.2       1 ACT         0.1781
     32 OD1        -9.9510   11.7660    3.2500 O.2       1 ACT        -0.3970
     33 ND2        -8.5970   10.9420    4.8900 N.am      1 ACT        -0.3007
     34 N         -10.2100   15.2760    2.5260 N.am      1 ACT        -0.2988
     35 H1        -13.2577   15.1969   -3.4513 H         1 ACT         0.0467
     36 H2        -14.8413   14.4582   -3.8675 H         1 ACT         0.0467
     37 H3        -13.3258   13.7791   -4.5522 H         1 ACT         0.0467
     38 H4        -12.6558   14.7600   -1.4970 H         1 ACT         0.1885
     39 H5        -13.3699   12.0279   -0.3787 H         1 ACT         0.0840
     40 H6        -11.1535   11.9110    0.7493 H         1 ACT         0.0584
     41 H7        -10.6839   13.4827    0.0173 H         1 ACT         0.0584
     42 H8        -10.2708   13.6650   -2.3484 H         1 ACT         0.0703
     43 H9        -11.3949    9.8432   -0.7565 H         1 ACT         0.0703
     44 H10        -9.5850   12.6338   -4.4494 H         1 ACT         0.0736
     45 H11       -10.8601    8.8411   -2.9708 H         1 ACT         0.0736
     46 H12       -15.6557   15.2642    3.6317 H         1 ACT         0.0276
     47 H13       -16.1249   14.2785    2.2052 H         1 ACT         0.0276
     48 H14       -15.8013   12.1006    3.6035 H         1 ACT         0.0276
     49 H15       -15.3321   13.0862    5.0301 H         1 ACT         0.0276
     50 H16       -13.9188   11.9592    1.8457 H         1 ACT         0.1839
     51 H17       -11.7383   12.8349    3.2527 H         1 ACT         0.1891
     52 H18       -11.0445   14.7660    5.4028 H         1 ACT         0.0828
     53 H19       -10.7667   12.4070    6.0399 H         1 ACT         0.0551
     54 H20        -9.1821   13.2475    5.9444 H         1 ACT         0.0551
     55 H21        -8.2236   10.2184    4.3096 H         1 ACT         0.1814
     56 H22        -8.2853   11.0353    5.8356 H         1 ACT         0.1814
     57 H23        -9.6002   15.7567    1.8958 H         1 ACT         0.1815
     58 H24       -11.1753   15.1560    2.2939 H         1 ACT         0.1815
@<TRIPOS>BOND
     1    1    2 2  
     2    1    3 1  
     3    4    1 am 
     4    5    4 1  
     5    6    5 1  
     6    5    8 1  
     7    6    7 2  
     8   25    6 am 
     9    8    9 1  
    10    9   10 ar 
    11    9   11 ar 
    12   10   12 ar 
    13   11   13 ar 
    14   12   14 ar 
    15   13   14 ar 
    16   14   15 1  
    17   15   16 1  
    18   16   17 ar 
    19   16   18 ar 
    20   16   19 ar 
    21   21   20 1  
    22   22   20 1  
    23   22   21 1  
    24   22   23 1  
    25   22   25 1  
    26   23   24 2  
    27   23   26 am 
    28   26   27 1  
    29   27   28 1  
    30   27   30 1  
    31   28   29 2  
    32   28   34 am 
    33   30   31 1  
    34   31   32 2  
    35   31   33 am 
    36    3   35 1  
    37    3   36 1  
    38    3   37 1  
    39    4   38 1  
    40    5   39 1  
    41    8   40 1  
    42    8   41 1  
    43   10   42 1  
    44   11   43 1  
    45   12   44 1  
    46   13   45 1  
    47   20   46 1  
    48   20   47 1  
    49   21   48 1  
    50   21   49 1  
    51   25   50 1  
    52   26   51 1  
    53   27   52 1  
    54   30   53 1  
    55   30   54 1  
    56   33   55 1  
    57   33   56 1  
    58   34   57 1  
    59   34   58 1  
@<TRIPOS>SUBSTRUCTURE
     1 ACT         1

