### 
### Created by X-TOOL on Mon Nov 18 14:52:34 2013
### 

@<TRIPOS>MOLECULE
2xhm ligand
   69    70     1     0     0
SMALL
GAST_HUCK


@<TRIPOS>ATOM
      1 CAR       -11.0040   24.9470   -8.5220 C.ar      1 K26        -0.0686
      2 CAN        -9.7360   25.4800   -8.3060 C.ar      1 K26        -0.0398
      3 CBD        -9.1480   26.2920   -9.2760 C.ar      1 K26         0.0805
      4 OAI        -7.9090   26.8070   -9.0490 O.3       1 K26        -0.3376
      5 CAO        -9.8240   26.5670  -10.4690 C.ar      1 K26        -0.0398
      6 CAS       -11.0960   26.0330  -10.6770 C.ar      1 K26        -0.0686
      7 CBF       -11.6920   25.2210   -9.7020 C.ar      1 K26        -0.0501
      8 CAV       -13.0850   24.6100   -9.9230 C.3       1 K26         0.0145
      9 CBI       -13.0000   23.2310  -10.6170 C.3       1 K26         0.1207
     10 PBK       -14.6580   22.5830  -11.0940 P.3       1 K26         0.0863
     11 OAJ       -14.4550   21.0380  -11.3730 O.co2     1 K26        -0.5606
     12 OAK       -15.5330   22.7390   -9.7260 O.co2     1 K26        -0.5606
     13 OAG       -15.2530   23.2910  -12.2590 O.co2     1 K26        -0.5606
     14 NAY       -12.1320   23.3720  -11.7980 N.am      1 K26        -0.2653
     15 C         -10.9480   22.7610  -11.8900 C.2       1 K26         0.2049
     16 O         -10.4870   21.9870  -11.0500 O.2       1 K26        -0.3943
     17 CA        -10.1210   23.1210  -13.1270 C.3       1 K26         0.1389
     18 N          -8.6880   22.9530  -12.8100 N.am      1 K26        -0.2621
     19 CBB        -7.7930   23.9490  -12.8160 C.2       1 K26         0.2043
     20 OAF        -8.0450   25.1180  -13.1110 O.2       1 K26        -0.3944
     21 CBJ        -6.3510   23.5140  -12.5010 C.3       1 K26         0.1334
     22 CBG        -5.7850   24.1950  -11.2490 C.3       1 K26        -0.0037
     23 CAC        -6.5950   23.7790  -10.0150 C.3       1 K26        -0.0582
     24 CAT        -4.3020   23.8400  -11.0530 C.3       1 K26        -0.0491
     25 CAA        -3.5270   24.9350  -10.3210 C.3       1 K26        -0.0648
     26 NAX        -5.5490   23.8050  -13.7060 N.am      1 K26        -0.2656
     27 CAZ        -4.8520   22.8600  -14.3400 C.2       1 K26         0.1751
     28 CAB        -4.1140   23.3230  -15.5980 C.3       1 K26         0.0258
     29 OAD        -4.7590   21.6950  -13.9580 O.2       1 K26        -0.3972
     30 CB        -10.4780   22.2550  -14.3280 C.3       1 K26         0.0163
     31 CG         -9.8480   22.8700  -15.5880 C.ar      1 K26        -0.0493
     32 CD1       -10.6210   23.6580  -16.4380 C.ar      1 K26        -0.0685
     33 CE1       -10.0490   24.2330  -17.5760 C.ar      1 K26        -0.0398
     34 CZ         -8.7000   24.0220  -17.8650 C.ar      1 K26         0.0805
     35 OH         -8.1460   24.5770  -18.9860 O.3       1 K26        -0.3376
     36 CE2        -7.9260   23.2380  -17.0100 C.ar      1 K26        -0.0398
     37 CD2        -8.4960   22.6660  -15.8700 C.ar      1 K26        -0.0685
     38 H1        -11.4585   24.3151   -7.7676 H         1 K26         0.0530
     39 H2         -9.2063   25.2642   -7.3852 H         1 K26         0.0525
     40 H3         -7.6452   27.3344   -9.7938 H         1 K26         0.2458
     41 H4         -9.3630   27.1905  -11.2265 H         1 K26         0.0525
     42 H5        -11.6265   26.2472  -11.5978 H         1 K26         0.0530
     43 H6        -13.6770   25.2903  -10.5528 H         1 K26         0.0442
     44 H7        -13.5800   24.4887   -8.9482 H         1 K26         0.0442
     45 H8        -12.5412   22.5141   -9.9201 H         1 K26         0.0771
     46 H9        -12.4397   23.9451  -12.5575 H         1 K26         0.1870
     47 H10       -10.3135   24.1729  -13.3847 H         1 K26         0.0821
     48 H11        -8.3654   22.0359  -12.5757 H         1 K26         0.1885
     49 H12        -6.3413   22.4287  -12.3223 H         1 K26         0.0803
     50 H13        -5.8693   25.2845  -11.3752 H         1 K26         0.0345
     51 H14        -6.1823   24.2718   -9.1223 H         1 K26         0.0235
     52 H15        -6.5387   22.6876   -9.8903 H         1 K26         0.0235
     53 H16        -7.6449   24.0793  -10.1472 H         1 K26         0.0235
     54 H17        -3.8435   23.6843  -12.0407 H         1 K26         0.0267
     55 H18        -4.2366   22.9109  -10.4677 H         1 K26         0.0267
     56 H19        -2.4765   24.6285  -10.2092 H         1 K26         0.0230
     57 H20        -3.9698   25.0957   -9.3270 H         1 K26         0.0230
     58 H21        -3.5768   25.8690  -10.8999 H         1 K26         0.0230
     59 H22        -5.5274   24.7406  -14.0585 H         1 K26         0.1883
     60 H23        -3.5748   22.4725  -16.0406 H         1 K26         0.0467
     61 H24        -3.3969   24.1136  -15.3323 H         1 K26         0.0467
     62 H25        -4.8398   23.7156  -16.3254 H         1 K26         0.0467
     63 H26       -11.5712   22.2154  -14.4432 H         1 K26         0.0453
     64 H27       -10.0879   21.2374  -14.1789 H         1 K26         0.0453
     65 H28       -11.6687   23.8255  -16.2161 H         1 K26         0.0530
     66 H29       -10.6543   24.8442  -18.2356 H         1 K26         0.0525
     67 H30        -7.2276   24.3389  -19.0351 H         1 K26         0.2458
     68 H31        -6.8778   23.0717  -17.2309 H         1 K26         0.0525
     69 H32        -7.8884   22.0637  -15.2043 H         1 K26         0.0530
@<TRIPOS>BOND
     1    1    2 ar 
     2    1    7 ar 
     3    2    3 ar 
     4    3    4 1  
     5    3    5 ar 
     6    5    6 ar 
     7    6    7 ar 
     8    7    8 1  
     9    8    9 1  
    10    9   10 1  
    11    9   14 1  
    12   10   11 ar 
    13   10   12 ar 
    14   10   13 ar 
    15   14   15 am 
    16   15   16 2  
    17   15   17 1  
    18   17   18 1  
    19   17   30 1  
    20   18   19 am 
    21   19   20 2  
    22   19   21 1  
    23   21   22 1  
    24   21   26 1  
    25   22   23 1  
    26   22   24 1  
    27   24   25 1  
    28   26   27 am 
    29   27   28 1  
    30   27   29 2  
    31   30   31 1  
    32   31   32 ar 
    33   31   37 ar 
    34   32   33 ar 
    35   33   34 ar 
    36   34   35 1  
    37   34   36 ar 
    38   36   37 ar 
    39    1   38 1  
    40    2   39 1  
    41    4   40 1  
    42    5   41 1  
    43    6   42 1  
    44    8   43 1  
    45    8   44 1  
    46    9   45 1  
    47   14   46 1  
    48   17   47 1  
    49   18   48 1  
    50   21   49 1  
    51   22   50 1  
    52   23   51 1  
    53   23   52 1  
    54   23   53 1  
    55   24   54 1  
    56   24   55 1  
    57   25   56 1  
    58   25   57 1  
    59   25   58 1  
    60   26   59 1  
    61   28   60 1  
    62   28   61 1  
    63   28   62 1  
    64   30   63 1  
    65   30   64 1  
    66   32   65 1  
    67   33   66 1  
    68   35   67 1  
    69   36   68 1  
    70   37   69 1  
@<TRIPOS>SUBSTRUCTURE
     1 K26         1

