### 
### Created by X-TOOL on Mon Nov 18 12:33:30 2013
### 

@<TRIPOS>MOLECULE
1lol ligand
   35    37     1     0     0
SMALL
GAST_HUCK


@<TRIPOS>ATOM
      1 P           3.2930   36.9480   44.6050 P.3       1 XMP         0.2008
      2 O1P         4.1210   37.4900   43.5250 O.co2     1 XMP        -0.5537
      3 O2P         2.0860   36.2280   44.0640 O.co2     1 XMP        -0.5537
      4 O5'         2.7110   38.1380   45.5130 O.3       1 XMP        -0.2734
      5 O3P         4.1100   36.0550   45.5710 O.co2     1 XMP        -0.5537
      6 C5'         2.5800   38.0430   46.9350 C.3       1 XMP         0.1072
      7 C4'         1.9750   39.3120   47.4770 C.3       1 XMP         0.1182
      8 O4'         2.9650   40.3480   47.1690 O.3       1 XMP        -0.3363
      9 C1'         2.2830   41.5810   46.8760 C.3       1 XMP         0.2010
     10 N9          2.8090   42.0620   45.5770 N.pl3     1 XMP        -0.1896
     11 C4          3.5310   43.2280   45.4310 C.2       1 XMP         0.2049
     12 N3          3.8770   44.1200   46.4320 N.am      1 XMP        -0.1835
     13 N1          4.9450   45.3310   44.6040 N.am      1 XMP        -0.1870
     14 C2          4.5980   45.1710   45.9500 C.2       1 XMP         0.3214
     15 O2          5.0020   46.0670   46.6860 O.2       1 XMP        -0.3846
     16 C6          4.5800   44.4020   43.5770 C.2       1 XMP         0.1997
     17 O6          4.9120   44.5960   42.4140 O.2       1 XMP        -0.4080
     18 C5          3.8290   43.3050   44.0860 C.2       1 XMP         0.1084
     19 N7          3.3010   42.1990   43.3690 N.2       1 XMP        -0.3331
     20 C8          2.7160   41.5120   44.3180 C.2       1 XMP         0.0923
     21 C2'         0.7860   41.3190   46.9670 C.3       1 XMP         0.1387
     22 O2'         0.2410   41.7550   48.2190 O.3       1 XMP        -0.3836
     23 C3'         0.6950   39.8280   46.8260 C.3       1 XMP         0.1149
     24 O3'        -0.4780   39.3340   47.4510 O.3       1 XMP        -0.3864
     25 H1          3.5726   37.8908   47.3840 H         1 XMP         0.0639
     26 H2          1.9296   37.1921   47.1859 H         1 XMP         0.0639
     27 H3          1.8135   39.2019   48.5595 H         1 XMP         0.0650
     28 H4          2.5346   42.3329   47.6384 H         1 XMP         0.0998
     29 H5          3.6276   44.0065   47.3937 H         1 XMP         0.2360
     30 H6          5.4765   46.1375   44.3452 H         1 XMP         0.2254
     31 H7          2.1947   40.5754   44.1258 H         1 XMP         0.1125
     32 H8          0.2527   41.8230   46.1475 H         1 XMP         0.0676
     33 H9         -0.6916   41.5749   48.2370 H         1 XMP         0.2101
     34 H10         0.6737   39.5444   45.7634 H         1 XMP         0.0648
     35 H11        -0.4600   39.5543   48.3749 H         1 XMP         0.2100
@<TRIPOS>BOND
     1    1    2 ar 
     2    1    3 ar 
     3    1    4 1  
     4    1    5 ar 
     5    4    6 1  
     6    6    7 1  
     7    7    8 1  
     8    7   23 1  
     9    8    9 1  
    10    9   10 1  
    11    9   21 1  
    12   10   11 1  
    13   10   20 1  
    14   11   12 am 
    15   11   18 2  
    16   12   14 am 
    17   14   13 am 
    18   13   16 am 
    19   14   15 2  
    20   16   17 2  
    21   16   18 1  
    22   18   19 1  
    23   19   20 2  
    24   21   22 1  
    25   21   23 1  
    26   23   24 1  
    27    6   25 1  
    28    6   26 1  
    29    7   27 1  
    30    9   28 1  
    31   12   29 1  
    32   13   30 1  
    33   20   31 1  
    34   21   32 1  
    35   22   33 1  
    36   23   34 1  
    37   24   35 1  
@<TRIPOS>SUBSTRUCTURE
     1 XMP         1

