3pxf_ligand
  -I-interpret- 

 33 35  0  0  0  0  0  0  0  0999 V2000
  122.8060  133.7390   64.7520 C   0  0  0  0  0
  123.1690  132.5480   64.0390 C   0  0  0  0  0
  122.1960  131.7260   63.4460 C   0  0  0  0  0
  120.8370  132.0570   63.5310 C   0  0  0  0  0
  120.3990  133.2200   64.2130 C   0  0  0  0  0
  119.0110  133.5290   64.2760 C   0  0  0  0  0
  118.5460  134.6700   64.9420 C   0  0  0  0  0
  119.4530  135.5370   65.5670 C   0  0  0  0  0
  123.7480  134.4790   65.2890 N   0  0  0  0  0
  121.8640  136.4760   66.3950 S   0  0  0  0  0
  120.8460  135.2870   65.5420 C   0  0  0  0  0
  121.3810  134.1110   64.8550 C   0  0  0  0  0
  124.6910  134.0930   66.1350 C   0  0  0  0  0
  124.6230  132.8740   66.9080 C   0  0  0  0  0
  125.6750  132.5270   67.8100 C   0  0  0  0  0
  126.8000  133.3920   67.9490 C   0  0  0  0  0
  126.8720  134.5920   67.1900 C   0  0  0  0  0
  125.8240  134.9400   66.2910 C   0  0  0  0  0
  122.7930  137.0720   65.4610 O   0  0  0  0  0
  122.5480  135.7720   67.4650 O   0  0  0  0  0
  120.9010  137.6330   67.0540 O   0  5  0  0  0
  124.2153  132.2769   63.9561 H   0  0  0  0  0
  122.4990  130.8287   62.9186 H   0  0  0  0  0
  120.1039  131.4089   63.0646 H   0  0  0  0  0
  118.2982  132.8667   63.7981 H   0  0  0  0  0
  117.4836  134.8829   64.9742 H   0  0  0  0  0
  119.0802  136.4164   66.0796 H   0  0  0  0  0
  123.7544  135.4737   65.0218 H   0  0  0  0  0
  123.7668  132.2176   66.8026 H   0  0  0  0  0
  125.6183  131.6105   68.3860 H   0  0  0  0  0
  127.6003  133.1347   68.6333 H   0  0  0  0  0
  127.7299  135.2460   67.2963 H   0  0  0  0  0
  125.8898  135.8590   65.7199 H   0  0  0  0  0
  1  2  4  0  0  0
  1  9  1  0  0  0
  1 12  4  0  0  0
  2  3  4  0  0  0
  3  4  4  0  0  0
  4  5  4  0  0  0
  5  6  4  0  0  0
  5 12  4  0  0  0
  6  7  4  0  0  0
  7  8  4  0  0  0
  8 11  4  0  0  0
  9 13  1  0  0  0
 11 10  1  0  0  0
 10 19  2  0  0  0
 10 20  2  0  0  0
 10 21  1  0  0  0
 11 12  4  0  0  0
 13 14  4  0  0  0
 13 18  4  0  0  0
 14 15  4  0  0  0
 15 16  4  0  0  0
 16 17  4  0  0  0
 17 18  4  0  0  0
  2 22  1  0  0  0
  3 23  1  0  0  0
  4 24  1  0  0  0
  6 25  1  0  0  0
  7 26  1  0  0  0
  8 27  1  0  0  0
  9 28  1  0  0  0
 14 29  1  0  0  0
 15 30  1  0  0  0
 16 31  1  0  0  0
 17 32  1  0  0  0
 18 33  1  0  0  0
M  END
$$$$
