### 
### Created by X-TOOL on Mon Nov 18 12:40:31 2013
### 

@<TRIPOS>MOLECULE
1os0 ligand
   65    67     1     0     0
SMALL
GAST_HUCK


@<TRIPOS>ATOM
      1 N          34.1120   41.4110   -8.4770 N.4       1 MOL         0.2351
      2 CA         34.4460   40.9520   -7.1100 C.3       1 MOL         0.0466
      3 P          35.2700   42.1920   -6.2520 P.3       1 MOL         0.0403
      4 O1P        36.5490   42.7120   -6.8370 O.co2     1 MOL        -0.6153
      5 O2P        34.3890   43.3580   -6.0400 O.co2     1 MOL        -0.6153
      6 CB         34.9630   39.6030   -7.3900 C.3       1 MOL         0.0407
      7 CG         33.9010   38.6470   -7.9230 C.ar      1 MOL        -0.0360
      8 CD1        32.8690   38.2590   -7.0560 C.ar      1 MOL        -0.0601
      9 CD2        33.9710   38.1450   -9.2050 C.ar      1 MOL        -0.0601
     10 CE1        31.9280   37.3710   -7.5860 C.ar      1 MOL        -0.0686
     11 CE2        33.0310   37.3340   -9.6820 C.ar      1 MOL        -0.0686
     12 CZ         31.9820   36.9090   -8.8930 C.ar      1 MOL        -0.0687
     13 CM         35.5860   41.3130   -4.7610 C.3       1 MOL         0.0402
     14 CA         36.6000   41.9580   -3.7960 C.3       1 MOL         0.0742
     15 CB         35.9200   42.2140   -2.4400 C.3       1 MOL         0.0021
     16 CG         36.7600   42.9290   -1.4050 C.ar      1 MOL        -0.0405
     17 CD1        37.0960   44.2660   -1.5520 C.ar      1 MOL        -0.0602
     18 CD2        37.1800   42.2470   -0.2750 C.ar      1 MOL        -0.0602
     19 CE1        37.8690   44.9200   -0.6130 C.ar      1 MOL        -0.0686
     20 CE2        37.9770   42.8840    0.6550 C.ar      1 MOL        -0.0686
     21 CZ         38.3040   44.2210    0.4970 C.ar      1 MOL        -0.0687
     22 C          37.9170   41.1920   -3.6180 C.2       1 MOL         0.1844
     23 O          39.0200   41.7290   -3.6600 O.2       1 MOL        -0.3964
     24 N          37.7720   39.9080   -3.3910 N.am      1 MOL        -0.2692
     25 CA         38.7000   38.8110   -3.2120 C.3       1 MOL         0.1038
     26 C          38.7800   38.0540   -4.5400 C.2       1 MOL         0.0621
     27 O          37.7130   37.7660   -5.1130 O.co2     1 MOL        -0.5664
     28 CB         38.1700   37.9510   -2.0990 C.3       1 MOL         0.0159
     29 CG         38.7970   36.6970   -1.5860 C.ar      1 MOL        -0.0392
     30 CD1        40.0650   36.6930   -1.0410 C.ar      1 MOL        -0.0602
     31 CD2        38.0990   35.4960   -1.6280 C.ar      1 MOL        -0.0602
     32 CE1        40.6570   35.5480   -0.5380 C.ar      1 MOL        -0.0686
     33 CE2        38.6740   34.3400   -1.1360 C.ar      1 MOL        -0.0686
     34 CZ         39.9470   34.3610   -0.5880 C.ar      1 MOL        -0.0687
     35 OXT        39.8870   37.7690   -4.9900 O.co2     1 MOL        -0.5664
     36 H1         33.6295   40.6758   -8.9697 H         1 MOL         0.2014
     37 H2         34.9598   41.6452   -8.9693 H         1 MOL         0.2014
     38 H3         33.5192   42.2244   -8.4229 H         1 MOL         0.2014
     39 H4         33.5159   40.8044   -6.5416 H         1 MOL         0.1089
     40 H5         35.3718   39.1857   -6.4580 H         1 MOL         0.0499
     41 H6         35.7653   39.6852   -8.1380 H         1 MOL         0.0499
     42 H7         32.8049   38.6251   -6.0377 H         1 MOL         0.0557
     43 H8         34.8089   38.4167   -9.8369 H         1 MOL         0.0557
     44 H9         31.1213   37.0287   -6.9480 H         1 MOL         0.0599
     45 H10        33.0902   37.0001  -10.7116 H         1 MOL         0.0599
     46 H11        31.2255   36.2367   -9.2813 H         1 MOL         0.0559
     47 H12        35.9665   40.3172   -5.0320 H         1 MOL         0.0496
     48 H13        34.6316   41.2073   -4.2243 H         1 MOL         0.0496
     49 H14        36.8658   42.9359   -4.2238 H         1 MOL         0.0576
     50 H15        35.6257   41.2404   -2.0212 H         1 MOL         0.0454
     51 H16        35.0213   42.8213   -2.6228 H         1 MOL         0.0454
     52 H17        36.7447   44.8091   -2.4219 H         1 MOL         0.0557
     53 H18        36.8837   41.2157   -0.1213 H         1 MOL         0.0557
     54 H19        38.1301   45.9639   -0.7443 H         1 MOL         0.0599
     55 H20        38.3487   42.3355    1.5129 H         1 MOL         0.0599
     56 H21        38.9043   44.7215    1.2481 H         1 MOL         0.0559
     57 H22        36.8146   39.6263   -3.3281 H         1 MOL         0.1876
     58 H23        39.6973   39.1891   -2.9429 H         1 MOL         0.0749
     59 H24        37.1583   37.6587   -2.4168 H         1 MOL         0.0467
     60 H25        38.1021   38.6175   -1.2266 H         1 MOL         0.0467
     61 H26        40.6192   37.6240   -1.0056 H         1 MOL         0.0557
     62 H27        37.1002   35.4661   -2.0481 H         1 MOL         0.0557
     63 H28        41.6543   35.5799   -0.1144 H         1 MOL         0.0599
     64 H29        38.1239   33.4070   -1.1790 H         1 MOL         0.0599
     65 H30        40.3858   33.4492   -0.1992 H         1 MOL         0.0559
@<TRIPOS>BOND
     1   24   25 1  
     2   25   28 1  
     3   25   26 1  
     4   26   27 ar 
     5   26   35 ar 
     6   28   29 1  
     7   29   30 ar 
     8   29   31 ar 
     9   31   33 ar 
    10   33   34 ar 
    11   32   34 ar 
    12   30   32 ar 
    13    2    1 1  
    14    3    2 1  
    15    2    6 1  
    16    3    4 ar 
    17    3    5 ar 
    18   13    3 1  
    19    6    7 1  
    20    7    8 ar 
    21    7    9 ar 
    22    8   10 ar 
    23    9   11 ar 
    24   10   12 ar 
    25   11   12 ar 
    26   14   13 1  
    27   14   15 1  
    28   22   14 1  
    29   15   16 1  
    30   16   17 ar 
    31   16   18 ar 
    32   17   19 ar 
    33   18   20 ar 
    34   19   21 ar 
    35   20   21 ar 
    36   22   23 2  
    37   22   24 am 
    38    1   36 1  
    39    1   37 1  
    40    1   38 1  
    41    2   39 1  
    42    6   40 1  
    43    6   41 1  
    44    8   42 1  
    45    9   43 1  
    46   10   44 1  
    47   11   45 1  
    48   12   46 1  
    49   13   47 1  
    50   13   48 1  
    51   14   49 1  
    52   15   50 1  
    53   15   51 1  
    54   17   52 1  
    55   18   53 1  
    56   19   54 1  
    57   20   55 1  
    58   21   56 1  
    59   24   57 1  
    60   25   58 1  
    61   28   59 1  
    62   28   60 1  
    63   30   61 1  
    64   31   62 1  
    65   32   63 1  
    66   33   64 1  
    67   34   65 1  
@<TRIPOS>SUBSTRUCTURE
     1 MOL         1

