### 
### Created by X-TOOL on Mon Nov 18 11:55:04 2013
### 

@<TRIPOS>MOLECULE
4tmn ligand
   68    69     1     0     0
SMALL
GAST_HUCK


@<TRIPOS>ATOM
      1 C          50.4290   20.3870   -8.5740 C.2       1 MOL         0.3232
      2 O          49.8980   21.2520   -7.7970 O.2       1 MOL        -0.3774
      3 OA         50.7950   20.5820   -9.8890 O.3       1 MOL        -0.2506
      4 CB         51.0060   21.9060  -10.4060 C.3       1 MOL         0.1113
      5 CG         50.5090   21.7670  -11.8010 C.ar      1 MOL        -0.0130
      6 CD1        50.4180   20.6180  -12.5940 C.ar      1 MOL        -0.0578
      7 CD2        50.0170   22.8810  -12.3620 C.ar      1 MOL        -0.0578
      8 CE1        49.8730   20.6070  -13.9050 C.ar      1 MOL        -0.0685
      9 CE2        49.5010   22.7460  -13.6670 C.ar      1 MOL        -0.0685
     10 CZ         49.3630   21.6920  -14.4780 C.ar      1 MOL        -0.0687
     11 N          50.7810   19.1360   -8.2400 N.am      1 MOL        -0.2403
     12 CA         50.6650   18.6430   -6.8390 C.3       1 MOL         0.1331
     13 P          52.0320   19.1530   -6.0640 P.3       1 MOL         0.0925
     14 OP1        53.3330   18.5400   -6.7090 O.co2     1 MOL        -0.6054
     15 OP2        52.1080   20.7320   -5.9400 O.co2     1 MOL        -0.6054
     16 CB         50.6690   17.1570   -6.9730 C.3       1 MOL         0.0219
     17 CG         49.3730   16.7970   -7.6700 C.ar      1 MOL        -0.0392
     18 CD1        48.2170   16.7880   -6.8790 C.ar      1 MOL        -0.0602
     19 CD2        49.3280   16.5600   -9.0210 C.ar      1 MOL        -0.0602
     20 CE1        46.9720   16.4870   -7.4460 C.ar      1 MOL        -0.0686
     21 CE2        48.0930   16.2460   -9.6070 C.ar      1 MOL        -0.0686
     22 CZ         46.9150   16.2080   -8.8060 C.ar      1 MOL        -0.0687
     23 N          51.7070   18.5030   -4.3100 N.am      1 MOL        -0.2733
     24 CA         52.9050   18.3320   -3.4760 C.3       1 MOL         0.1230
     25 C          53.6360   16.9900   -3.6430 C.2       1 MOL         0.1994
     26 O          54.8700   16.9190   -3.6050 O.2       1 MOL        -0.3949
     27 CB         52.6060   18.4710   -1.9780 C.3       1 MOL        -0.0136
     28 CG         53.8370   18.3750   -1.1070 C.3       1 MOL        -0.0429
     29 CD1        54.6920   19.6480   -1.2450 C.3       1 MOL        -0.0625
     30 CD2        53.1860   18.1970    0.2480 C.3       1 MOL        -0.0625
     31 N          52.8650   15.9260   -3.7510 N.am      1 MOL        -0.2701
     32 CA         53.3430   14.5330   -3.8630 C.3       1 MOL         0.0916
     33 C          52.6830   13.8220   -5.0710 C.2       1 MOL         0.0598
     34 O          51.6740   14.3100   -5.6210 O.co2     1 MOL        -0.5666
     35 CB         53.0150   13.8090   -2.5700 C.3       1 MOL        -0.0300
     36 OXT        53.1340   12.7780   -5.6680 O.co2     1 MOL        -0.5666
     37 H1         52.0712   22.1797  -10.3852 H         1 MOL         0.0776
     38 H2         50.4244   22.6528   -9.8456 H         1 MOL         0.0776
     39 H3         50.7842   19.6835  -12.1844 H         1 MOL         0.0557
     40 H4         50.0160   23.8318  -11.8415 H         1 MOL         0.0557
     41 H5         49.8730   19.6763  -14.4607 H         1 MOL         0.0599
     42 H6         49.1478   23.6768  -14.0959 H         1 MOL         0.0599
     43 H7         48.9026   21.7187  -15.4590 H         1 MOL         0.0559
     44 H8         51.1290   18.5208   -8.9474 H         1 MOL         0.1888
     45 H9         49.7572   19.0055   -6.3346 H         1 MOL         0.0803
     46 H10        50.7136   16.6839   -5.9809 H         1 MOL         0.0465
     47 H11        51.5300   16.8298   -7.5743 H         1 MOL         0.0465
     48 H12        48.2863   17.0154   -5.8214 H         1 MOL         0.0557
     49 H13        50.2281   16.6143   -9.6226 H         1 MOL         0.0557
     50 H14        46.0745   16.4721   -6.8383 H         1 MOL         0.0599
     51 H15        48.0347   16.0324  -10.6682 H         1 MOL         0.0599
     52 H16        45.9640   15.9587   -9.2627 H         1 MOL         0.0559
     53 H17        50.7876   18.2923   -3.9778 H         1 MOL         0.1669
     54 H18        53.6029   19.1318   -3.7643 H         1 MOL         0.0753
     55 H19        51.9096   17.6711   -1.6861 H         1 MOL         0.0311
     56 H20        52.1334   19.4494   -1.8064 H         1 MOL         0.0311
     57 H21        54.4535   17.5012   -1.3646 H         1 MOL         0.0298
     58 H22        55.5830   19.5623   -0.6056 H         1 MOL         0.0232
     59 H23        54.1008   20.5222   -0.9348 H         1 MOL         0.0232
     60 H24        55.0031   19.7689   -2.2931 H         1 MOL         0.0232
     61 H25        52.5991   17.2667    0.2534 H         1 MOL         0.0232
     62 H26        52.5222   19.0504    0.4509 H         1 MOL         0.0232
     63 H27        53.9635   18.1445    1.0243 H         1 MOL         0.0232
     64 H28        51.8761   16.0742   -3.7576 H         1 MOL         0.1875
     65 H29        54.4333   14.5362   -4.0085 H         1 MOL         0.0723
     66 H30        53.3639   12.7678   -2.6341 H         1 MOL         0.0270
     67 H31        51.9270   13.8218   -2.4084 H         1 MOL         0.0270
     68 H32        53.5164   14.3126   -1.7304 H         1 MOL         0.0270
@<TRIPOS>BOND
     1   23   24 1  
     2   24   27 1  
     3   24   25 1  
     4   25   26 2  
     5   27   28 1  
     6   28   29 1  
     7   28   30 1  
     8   31   32 1  
     9   32   35 1  
    10   32   33 1  
    11   33   34 ar 
    12   33   36 ar 
    13   25   31 am 
    14    1    2 2  
    15    1    3 1  
    16   11    1 am 
    17    3    4 1  
    18    4    5 1  
    19    5    6 ar 
    20    5    7 ar 
    21    6    8 ar 
    22    7    9 ar 
    23    8   10 ar 
    24    9   10 ar 
    25   12   11 1  
    26   13   12 1  
    27   12   16 1  
    28   13   14 ar 
    29   13   15 ar 
    30   13   23 am 
    31   16   17 1  
    32   17   18 ar 
    33   17   19 ar 
    34   18   20 ar 
    35   19   21 ar 
    36   20   22 ar 
    37   21   22 ar 
    38    4   37 1  
    39    4   38 1  
    40    6   39 1  
    41    7   40 1  
    42    8   41 1  
    43    9   42 1  
    44   10   43 1  
    45   11   44 1  
    46   12   45 1  
    47   16   46 1  
    48   16   47 1  
    49   18   48 1  
    50   19   49 1  
    51   20   50 1  
    52   21   51 1  
    53   22   52 1  
    54   23   53 1  
    55   24   54 1  
    56   27   55 1  
    57   27   56 1  
    58   28   57 1  
    59   29   58 1  
    60   29   59 1  
    61   29   60 1  
    62   30   61 1  
    63   30   62 1  
    64   30   63 1  
    65   31   64 1  
    66   32   65 1  
    67   35   66 1  
    68   35   67 1  
    69   35   68 1  
@<TRIPOS>SUBSTRUCTURE
     1 MOL         1

