### 
### Created by X-TOOL on Mon Nov 18 12:19:09 2013
### 

@<TRIPOS>MOLECULE
1qi0 ligand
   45    46     1     0     0
SMALL
GAST_HUCK


@<TRIPOS>ATOM
      1 C1         -4.0600   43.0330   12.2230 C.3       1 CBI         0.1884
      2 C2         -5.1400   41.9280   11.8490 C.3       1 CBI         0.1341
      3 C3         -6.6030   42.5000   11.8490 C.3       1 CBI         0.1141
      4 C4         -6.8940   43.2440   13.1880 C.3       1 CBI         0.1119
      5 C5         -5.7720   44.2850   13.4930 C.3       1 CBI         0.1130
      6 C6         -5.8720   44.8640   14.9210 C.3       1 CBI         0.0730
      7 O2         -4.8360   41.3570   10.5850 O.3       1 CBI        -0.3841
      8 O3         -7.5630   41.4460   11.7340 O.3       1 CBI        -0.3864
      9 O4         -8.1840   43.8540   13.1520 O.3       1 CBI        -0.3865
     10 O5         -4.4890   43.6360   13.4390 O.3       1 CBI        -0.3405
     11 O6         -5.9580   44.0060   16.0440 O.3       1 CBI        -0.3924
     12 C1'         1.2970   43.5920   12.3250 C.3       1 CBI         0.1854
     13 C2'         0.5970   43.5450   13.7080 C.3       1 CBI         0.1339
     14 C3'        -0.7430   42.7430   13.6790 C.3       1 CBI         0.1144
     15 C4'        -1.6420   43.1720   12.4470 C.3       1 CBI         0.1184
     16 C5'        -0.7580   43.0880   11.1300 C.3       1 CBI         0.1134
     17 C6'        -1.5500   43.5930    9.8950 C.3       1 CBI         0.0730
     18 O1'         2.2940   44.5890   12.2370 O.3       1 CBI        -0.3649
     19 O2'         1.5020   43.0460   14.6760 O.3       1 CBI        -0.3841
     20 O3'        -1.4850   42.8710   14.8870 O.3       1 CBI        -0.3864
     21 O4'        -2.8070   42.3850   12.4090 O.3       1 CBI        -0.3401
     22 O5'         0.4240   43.8860   11.2420 O.3       1 CBI        -0.3407
     23 O6'        -2.1380   44.8600   10.1420 O.3       1 CBI        -0.3924
     24 H1         -3.9815   43.7883   11.4272 H         1 CBI         0.0938
     25 H2         -5.0881   41.1339   12.6084 H         1 CBI         0.0671
     26 H3         -6.7156   43.1963   11.0049 H         1 CBI         0.0648
     27 H4         -6.8943   42.5007   13.9989 H         1 CBI         0.0647
     28 H5         -5.8253   45.0982   12.7542 H         1 CBI         0.0647
     29 H6         -6.7704   45.4984   14.9407 H         1 CBI         0.0584
     30 H7         -4.9788   45.4884   15.0703 H         1 CBI         0.0584
     31 H8         -3.9761   40.9545   10.6192 H         1 CBI         0.2101
     32 H9         -8.4384   41.8149   11.7361 H         1 CBI         0.2100
     33 H10        -8.8457   43.1852   13.0202 H         1 CBI         0.2100
     34 H11        -6.0124   44.5276   16.8362 H         1 CBI         0.2095
     35 H12         1.7556   42.6061   12.1586 H         1 CBI         0.0935
     36 H13         0.3464   44.5788   13.9881 H         1 CBI         0.0671
     37 H14        -0.4866   41.6803   13.5567 H         1 CBI         0.0648
     38 H15        -1.9511   44.2191   12.5813 H         1 CBI         0.0651
     39 H16        -0.4701   42.0384   10.9705 H         1 CBI         0.0647
     40 H17        -2.3441   42.8696    9.6584 H         1 CBI         0.0584
     41 H18        -0.8639   43.6772    9.0394 H         1 CBI         0.0584
     42 H19         2.7309   44.5250   11.3958 H         1 CBI         0.2126
     43 H20         2.2995   43.5620   14.6580 H         1 CBI         0.2101
     44 H21        -2.2515   42.3112   14.8474 H         1 CBI         0.2100
     45 H22        -2.6148   45.1424    9.3704 H         1 CBI         0.2095
@<TRIPOS>BOND
     1    1   21 1  
     2    1   10 1  
     3    1    2 1  
     4    2    7 1  
     5    2    3 1  
     6    3    8 1  
     7    3    4 1  
     8    4    9 1  
     9    4    5 1  
    10    5   10 1  
    11    5    6 1  
    12    6   11 1  
    13   21   15 1  
    14   15   16 1  
    15   15   14 1  
    16   14   20 1  
    17   14   13 1  
    18   13   19 1  
    19   13   12 1  
    20   12   22 1  
    21   12   18 1  
    22   22   16 1  
    23   16   17 1  
    24   17   23 1  
    25    1   24 1  
    26    2   25 1  
    27    3   26 1  
    28    4   27 1  
    29    5   28 1  
    30    6   29 1  
    31    6   30 1  
    32    7   31 1  
    33    8   32 1  
    34    9   33 1  
    35   11   34 1  
    36   12   35 1  
    37   13   36 1  
    38   14   37 1  
    39   15   38 1  
    40   16   39 1  
    41   17   40 1  
    42   17   41 1  
    43   18   42 1  
    44   19   43 1  
    45   20   44 1  
    46   23   45 1  
@<TRIPOS>SUBSTRUCTURE
     1 CBI         1

