3i3b_ligand
  -I-interpret- 

 22 22  0  0  0  0  0  0  0  0999 V2000
  -10.6480  -27.9420  -26.4260 C   0  0  0  0  0
   -9.6960  -29.0080  -25.8620 C   0  0  0  0  0
   -8.8230  -29.5690  -26.9840 C   0  0  0  0  0
   -9.6910  -30.0360  -28.1500 C   0  0  0  0  0
  -10.3280  -28.7930  -28.8000 C   0  0  0  0  0
  -11.4440  -29.2070  -29.7590 C   0  0  0  0  0
  -11.1720  -27.1520  -25.6830 O   0  0  0  0  0
   -8.8370  -28.4270  -24.8670 O   0  0  0  0  0
   -8.0720  -30.6540  -26.4770 O   0  0  0  0  0
  -10.7200  -30.9140  -27.6720 O   0  0  0  0  0
  -10.9130  -27.8800  -27.7850 O   0  0  0  0  0
  -10.9030  -29.9280  -30.8640 O   0  0  0  0  0
  -10.2856  -29.8199  -25.4113 H   0  0  0  0  0
   -8.1377  -28.7847  -27.3380 H   0  0  0  0  0
   -9.0704  -30.5660  -28.8875 H   0  0  0  0  0
   -9.5496  -28.2540  -29.3599 H   0  0  0  0  0
  -11.9574  -28.3072  -30.1289 H   0  0  0  0  0
  -12.1629  -29.8461  -29.2254 H   0  0  0  0  0
   -8.2549  -29.0947  -24.5239 H   0  0  0  0  0
   -7.5352  -30.3550  -25.7525 H   0  0  0  0  0
  -10.3220  -31.6785  -27.2723 H   0  0  0  0  0
  -11.6060  -30.1791  -31.4516 H   0  0  0  0  0
  1  2  1  0  0  0
  1  7  2  0  0  0
  1 11  1  0  0  0
  2  3  1  0  0  0
  2  8  1  0  0  0
  3  4  1  0  0  0
  3  9  1  0  0  0
  4  5  1  0  0  0
  4 10  1  0  0  0
  5  6  1  0  0  0
  5 11  1  0  0  0
  6 12  1  0  0  0
  2 13  1  0  0  0
  3 14  1  0  0  0
  4 15  1  0  0  0
  5 16  1  0  0  0
  6 17  1  0  0  0
  6 18  1  0  0  0
  8 19  1  0  0  0
  9 20  1  0  0  0
 10 21  1  0  0  0
 12 22  1  0  0  0
M  END
$$$$
