3kgp_ligand
  -I-interpret- 

 20 20  0  0  0  0  0  0  0  0999 V2000
  -26.8620   86.4380  -12.0030 C   0  0  0  0  0
  -26.0450   85.9370  -11.2960 O   0  0  0  0  0
  -27.9970   86.9950  -11.5950 C   0  0  0  0  0
  -32.0180   89.9830  -10.9120 N   0  3  0  0  0
  -28.2980   86.9990  -10.1870 C   0  0  0  0  0
  -29.4900   87.5790   -9.7190 C   0  0  0  0  0
  -30.3970   88.1590  -10.6310 C   0  0  0  0  0
  -30.1070   88.1560  -12.0110 C   0  0  0  0  0
  -28.9210   87.5800  -12.4910 C   0  0  0  0  0
  -31.6800   88.7790  -10.1280 C   0  0  0  0  0
  -26.3340   86.3040  -13.1500 O   0  5  0  0  0
  -32.8752   90.3819  -10.5624 H   0  0  0  0  0
  -32.1353   89.7311  -11.8809 H   0  0  0  0  0
  -31.2744   90.6584  -10.8280 H   0  0  0  0  0
  -27.6027   86.5530   -9.4850 H   0  0  0  0  0
  -29.7122   87.5806   -8.6580 H   0  0  0  0  0
  -30.8070   88.6029  -12.7076 H   0  0  0  0  0
  -28.7121   87.5836  -13.5547 H   0  0  0  0  0
  -32.4957   88.0468  -10.2204 H   0  0  0  0  0
  -31.5562   89.0587   -9.0714 H   0  0  0  0  0
  1  2  2  0  0  0
  3  1  1  0  0  0
  1 11  1  0  0  0
  5  3  4  0  0  0
  3  9  4  0  0  0
 10  4  1  0  0  0
  6  5  4  0  0  0
  7  6  4  0  0  0
  7  8  4  0  0  0
  7 10  1  0  0  0
  8  9  4  0  0  0
  4 12  1  0  0  0
  4 13  1  0  0  0
  4 14  1  0  0  0
  5 15  1  0  0  0
  6 16  1  0  0  0
  8 17  1  0  0  0
  9 18  1  0  0  0
 10 19  1  0  0  0
 10 20  1  0  0  0
M  END
$$$$
