### 
### Created by X-TOOL on Mon Nov 18 13:31:26 2013
### 

@<TRIPOS>MOLECULE
2qft ligand
   16    15     1     0     0
SMALL
GAST_HUCK


@<TRIPOS>ATOM
      1 P1         60.2550    8.7590   26.9360 P.3       1 GPJ         0.1070
      2 O1         60.3010   10.2050   27.3000 O.co2     1 GPJ        -0.5587
      3 O2         59.1850    8.4180   25.9600 O.co2     1 GPJ        -0.5587
      4 O3         61.5930    8.2750   26.4780 O.co2     1 GPJ        -0.5587
      5 O4         60.9720    9.9350   31.7150 O.co2     1 GPJ        -0.5645
      6 O5         60.2550    8.4030   33.1350 O.co2     1 GPJ        -0.5645
      7 C1         59.8090    7.8550   28.3380 C.3       1 GPJ         0.0369
      8 C2         59.9270    7.9320   30.8730 C.3       1 GPJ         0.0207
      9 C3         60.4220    8.8160   31.9980 C.2       1 GPJ         0.0813
     10 N1         60.2290    8.5300   29.5610 N.4       1 GPJ         0.2507
     11 H1         60.2870    6.8653   28.2930 H         1 GPJ         0.1013
     12 H2         58.7158    7.7339   28.3532 H         1 GPJ         0.1013
     13 H3         58.8386    7.8039   30.9681 H         1 GPJ         0.0989
     14 H4         60.4192    6.9508   30.9431 H         1 GPJ         0.0989
     15 H5         59.8008    9.4425   29.5516 H         1 GPJ         0.2042
     16 H6         61.2309    8.6284   29.5098 H         1 GPJ         0.2042
@<TRIPOS>BOND
     1    1    2 ar 
     2    1    3 ar 
     3    1    4 ar 
     4    7    1 1  
     5    9    5 ar 
     6    9    6 ar 
     7   10    7 1  
     8    8    9 1  
     9    8   10 1  
    10    7   11 1  
    11    7   12 1  
    12    8   13 1  
    13    8   14 1  
    14   10   15 1  
    15   10   16 1  
@<TRIPOS>SUBSTRUCTURE
     1 GPJ         1

