### 
### Created by X-TOOL on Mon Nov 18 12:43:22 2013
### 

@<TRIPOS>MOLECULE
1n2v ligand
   27    28     1     0     0
SMALL
GAST_HUCK


@<TRIPOS>ATOM
      1 N1         15.4350   16.8530   20.4090 N.pl3     1 BDI        -0.2398
      2 C1         16.5900   17.0760   19.8060 C.2       1 BDI         0.1238
      3 C6         16.7440   17.0260   18.2840 C.3       1 BDI         0.0274
      4 C7         15.6650   17.7690   17.4320 C.3       1 BDI        -0.0366
      5 C8         16.3420   18.3730   16.1580 C.3       1 BDI        -0.0535
      6 C9         15.3430   19.1170   15.2380 C.3       1 BDI        -0.0651
      7 N2         17.4900   17.3220   20.6050 N.2       1 BDI        -0.3056
      8 C2         17.0380   17.3010   21.9580 C.2       1 BDI         0.1055
      9 C4         17.7020   17.5270   23.2770 C.2       1 BDI         0.2188
     10 N5         16.8750   17.4100   24.4010 N.am      1 BDI        -0.1851
     11 N4         15.4120   17.0790   24.3150 N.am      1 BDI        -0.1821
     12 C5         14.7400   16.8560   23.0980 C.2       1 BDI         0.2476
     13 O1         13.5080   16.5760   23.0100 O.2       1 BDI        -0.3849
     14 C3         15.6460   16.9830   21.8390 C.2       1 BDI         0.1656
     15 O3         18.9000   17.7960   23.3310 O.2       1 BDI        -0.3913
     16 H1         14.5431   16.6270   19.9459 H         1 BDI         0.2418
     17 H2         16.7307   15.9676   17.9847 H         1 BDI         0.0512
     18 H3         17.7215   17.4651   18.0357 H         1 BDI         0.0512
     19 H4         15.2174   18.5773   18.0289 H         1 BDI         0.0294
     20 H5         14.8812   17.0586   17.1303 H         1 BDI         0.0294
     21 H6         16.8039   17.5553   15.5853 H         1 BDI         0.0264
     22 H7         17.1199   19.0823   16.4771 H         1 BDI         0.0264
     23 H8         15.8776   19.5170   14.3638 H         1 BDI         0.0230
     24 H9         14.8789   19.9448   15.7942 H         1 BDI         0.0230
     25 H10        14.5629   18.4178   14.9024 H         1 BDI         0.0230
     26 H11        17.2778   17.5538   25.3049 H         1 BDI         0.2151
     27 H12        14.8892   17.0138   25.1650 H         1 BDI         0.2153
@<TRIPOS>BOND
     1    1    2 1  
     2    1   14 1  
     3    2    3 1  
     4    2    7 2  
     5    3    4 1  
     6    4    5 1  
     7    5    6 1  
     8    7    8 1  
     9    8    9 1  
    10    8   14 2  
    11    9   10 am 
    12    9   15 2  
    13   10   11 1  
    14   11   12 am 
    15   12   13 2  
    16   12   14 1  
    17    1   16 1  
    18    3   17 1  
    19    3   18 1  
    20    4   19 1  
    21    4   20 1  
    22    5   21 1  
    23    5   22 1  
    24    6   23 1  
    25    6   24 1  
    26    6   25 1  
    27   10   26 1  
    28   11   27 1  
@<TRIPOS>SUBSTRUCTURE
     1 BDI         1

