### 
### Created by X-TOOL on Mon Nov 18 12:03:26 2013
### 

@<TRIPOS>MOLECULE
1kel ligand
   40    40     1     0     0
SMALL
GAST_HUCK


@<TRIPOS>ATOM
      1 C1        -23.4170   36.2400   17.2300 C.ar      1 AAH        -0.0251
      2 C2        -23.5630   37.6280   17.1240 C.ar      1 AAH        -0.0467
      3 C3        -22.6270   38.3670   16.3520 C.ar      1 AAH         0.0074
      4 C4        -21.5130   37.7280   15.8430 C.ar      1 AAH        -0.0467
      5 C5        -21.2980   36.3540   16.0730 C.ar      1 AAH        -0.0251
      6 C6        -22.2450   35.6210   16.7750 C.ar      1 AAH         0.1925
      7 N7        -22.0310   34.1620   17.0390 N.2       1 AAH         0.3095
      8 O8        -22.8000   33.5630   17.6990 O.2       1 AAH         0.1751
      9 O9        -21.2310   33.5430   16.4130 O.2       1 AAH         0.1751
     10 C10       -22.8860   39.8500   16.0920 C.3       1 AAH         0.0060
     11 N11       -24.2810   40.2910   16.3140 N.4       1 AAH         0.2598
     12 C12       -25.2730   39.7500   15.3070 C.3       1 AAH         0.0389
     13 P13       -27.0840   39.7970   15.6940 P.3       1 AAH         0.1070
     14 O14       -27.4690   38.8120   16.8460 O.co2     1 AAH        -0.5587
     15 O15       -27.6150   41.2580   16.1360 O.co2     1 AAH        -0.5587
     16 O16       -27.7450   39.4050   14.4660 O.co2     1 AAH        -0.5587
     17 C17       -24.4950   41.7850   16.6520 C.3       1 AAH        -0.0289
     18 C18       -24.0730   42.1300   18.0900 C.3       1 AAH        -0.0110
     19 C19       -24.4760   41.0040   19.0580 C.3       1 AAH        -0.0366
     20 C20       -24.3590   41.5060   20.5040 C.3       1 AAH         0.0004
     21 C21       -25.5060   42.4520   20.8130 C.2       1 AAH         0.0348
     22 O22       -26.8010   42.1360   20.4540 O.co2     1 AAH        -0.5690
     23 O23       -25.2670   43.5050   21.3940 O.co2     1 AAH        -0.5690
     24 H1        -24.2111   35.6435   17.6644 H         1 AAH         0.0676
     25 H2        -24.3808   38.1332   17.6251 H         1 AAH         0.0576
     26 H3        -20.7942   38.2910   15.2586 H         1 AAH         0.0576
     27 H4        -20.3993   35.8731   15.7042 H         1 AAH         0.0676
     28 H5        -22.6234   40.0636   15.0454 H         1 AAH         0.0994
     29 H6        -22.2341   40.4322   16.7598 H         1 AAH         0.0994
     30 H7        -24.5332   39.8236   17.1707 H         1 AAH         0.2064
     31 H8        -25.0103   38.6960   15.1336 H         1 AAH         0.1014
     32 H9        -25.1296   40.3213   14.3780 H         1 AAH         0.1014
     33 H10       -25.5616   42.0249   16.5303 H         1 AAH         0.0815
     34 H11       -23.9004   42.3932   15.9544 H         1 AAH         0.0815
     35 H12       -24.5659   43.0642   18.3971 H         1 AAH         0.0318
     36 H13       -22.9816   42.2628   18.1244 H         1 AAH         0.0318
     37 H14       -23.8093   40.1409   18.9145 H         1 AAH         0.0285
     38 H15       -25.5147   40.7024   18.8575 H         1 AAH         0.0285
     39 H16       -23.4037   42.0364   20.6305 H         1 AAH         0.0430
     40 H17       -24.3966   40.6490   21.1925 H         1 AAH         0.0430
@<TRIPOS>BOND
     1    1    6 ar 
     2    1    2 ar 
     3    2    3 ar 
     4    3   10 1  
     5    3    4 ar 
     6    4    5 ar 
     7    5    6 ar 
     8    6    7 1  
     9    7    9 2  
    10    7    8 2  
    11   10   11 1  
    12   11   17 1  
    13   11   12 1  
    14   12   13 1  
    15   13   16 ar 
    16   13   15 ar 
    17   13   14 ar 
    18   17   18 1  
    19   18   19 1  
    20   19   20 1  
    21   20   21 1  
    22   21   23 ar 
    23   21   22 ar 
    24    1   24 1  
    25    2   25 1  
    26    4   26 1  
    27    5   27 1  
    28   10   28 1  
    29   10   29 1  
    30   11   30 1  
    31   12   31 1  
    32   12   32 1  
    33   17   33 1  
    34   17   34 1  
    35   18   35 1  
    36   18   36 1  
    37   19   37 1  
    38   19   38 1  
    39   20   39 1  
    40   20   40 1  
@<TRIPOS>SUBSTRUCTURE
     1 AAH         1

