### 
### Created by X-TOOL on Mon Nov 18 13:48:52 2013
### 

@<TRIPOS>MOLECULE
2qmj ligand
   88    91     1     0     0
SMALL
GAST_HUCK


@<TRIPOS>ATOM
      1 C1A       -19.6710   -5.9900  -10.6110 C.3       1 ACR         0.0141
      2 C2A       -20.7300   -5.6830  -11.6900 C.3       1 ACR         0.1303
      3 C3A       -21.5600   -6.9360  -11.9710 C.3       1 ACR         0.1215
      4 C4A       -20.6670   -7.9640  -12.6390 C.3       1 ACR         0.1112
      5 C5A       -19.3470   -8.1050  -11.9110 C.2       1 ACR        -0.0200
      6 C6A       -18.5890   -9.3680  -12.1800 C.3       1 ACR         0.0719
      7 C7A       -18.8330   -7.1680  -11.0990 C.2       1 ACR        -0.0543
      8 O2A       -21.5980   -4.6430  -11.2610 O.3       1 ACR        -0.3821
      9 O3A       -22.7950   -6.7250  -12.7430 O.3       1 ACR        -0.3843
     10 O4A       -21.3410   -9.2220  -12.6550 O.3       1 ACR        -0.3780
     11 O6A       -17.8570   -9.0520  -13.3800 O.3       1 ACR        -0.3839
     12 C1B       -18.2170   -6.7430   -5.3860 C.3       1 ACR         0.1886
     13 C2B       -17.8400   -5.5560   -6.2710 C.3       1 ACR         0.1370
     14 C3B       -18.9740   -5.2480   -7.2620 C.3       1 ACR         0.1304
     15 C4B       -19.2400   -6.4670   -8.1460 C.3       1 ACR         0.0341
     16 C5B       -19.5940   -7.6510   -7.2210 C.3       1 ACR         0.1038
     17 C6B       -19.7630   -8.9570   -7.9900 C.3       1 ACR        -0.0332
     18 N4B       -20.2000   -6.1770   -9.2330 N.4       1 ACR         0.2433
     19 O2B       -17.6240   -4.4180   -5.4390 O.3       1 ACR        -0.3840
     20 O3B       -18.6180   -4.1570   -8.1040 O.3       1 ACR        -0.3834
     21 O5B       -18.5410   -7.8430   -6.2420 O.3       1 ACR        -0.3401
     22 C1C       -21.0570   -7.7380   -0.9580 C.3       1 ACR         0.1884
     23 C2C       -19.5340   -7.7390   -1.0400 C.3       1 ACR         0.1341
     24 C3C       -19.0200   -6.9610   -2.2550 C.3       1 ACR         0.1144
     25 C4C       -19.7220   -7.3380   -3.5600 C.3       1 ACR         0.1184
     26 C5C       -21.2420   -7.3380   -3.3630 C.3       1 ACR         0.1134
     27 C6C       -21.9950   -7.8540   -4.5850 C.3       1 ACR         0.0730
     28 O2C       -19.0400   -7.0610    0.1090 O.3       1 ACR        -0.3841
     29 O3C       -17.6040   -7.1280   -2.4050 O.3       1 ACR        -0.3864
     30 O4C       -19.3450   -6.3910   -4.5600 O.3       1 ACR        -0.3401
     31 O5C       -21.5930   -8.1540   -2.2260 O.3       1 ACR        -0.3405
     32 O6C       -23.3970   -7.9360   -4.2880 O.3       1 ACR        -0.3924
     33 C1D       -24.4360   -4.5400    1.8350 C.3       1 ACR         0.1854
     34 C2D       -22.9600   -4.6230    2.3060 C.3       1 ACR         0.1339
     35 C3D       -21.9930   -5.0600    1.1990 C.3       1 ACR         0.1144
     36 C4D       -22.4870   -6.2690    0.3980 C.3       1 ACR         0.1184
     37 C5D       -23.9070   -5.9410   -0.1210 C.3       1 ACR         0.1134
     38 C6D       -24.5410   -7.0460   -0.9710 C.3       1 ACR         0.0730
     39 O1D       -24.7250   -3.2780    1.2080 O.3       1 ACR        -0.3649
     40 O2D       -22.4900   -3.3600    2.8190 O.3       1 ACR        -0.3841
     41 O3D       -20.6790   -5.3120    1.7380 O.3       1 ACR        -0.3864
     42 O4D       -21.5170   -6.4160   -0.6480 O.3       1 ACR        -0.3401
     43 O5D       -24.8190   -5.6180    0.9550 O.3       1 ACR        -0.3407
     44 O6D       -25.8490   -6.6220   -1.3960 O.3       1 ACR        -0.3924
     45 H1        -19.0058   -5.1154  -10.5600 H         1 ACR         0.0950
     46 H2        -20.2199   -5.3694  -12.6128 H         1 ACR         0.0694
     47 H3        -21.8687   -7.3406  -10.9958 H         1 ACR         0.0671
     48 H4        -20.4687   -7.6455  -13.6730 H         1 ACR         0.0769
     49 H5        -19.2733  -10.2133  -12.3445 H         1 ACR         0.0706
     50 H6        -17.9065   -9.6047  -11.3505 H         1 ACR         0.0706
     51 H7        -17.7946   -7.2504  -10.7814 H         1 ACR         0.0299
     52 H8        -22.2340   -4.4614  -11.9429 H         1 ACR         0.2103
     53 H9        -23.3350   -6.0783  -12.3040 H         1 ACR         0.2102
     54 H10       -22.1687   -9.1307  -13.1123 H         1 ACR         0.2130
     55 H11       -17.3351   -9.8026  -13.6381 H         1 ACR         0.2125
     56 H12       -17.3668   -7.0138   -4.7428 H         1 ACR         0.0938
     57 H13       -16.9206   -5.7896   -6.8279 H         1 ACR         0.0672
     58 H14       -19.8849   -4.9948   -6.6997 H         1 ACR         0.0679
     59 H15       -18.2939   -6.7267   -8.6435 H         1 ACR         0.0903
     60 H16       -20.5361   -7.4190   -6.7026 H         1 ACR         0.0652
     61 H17       -20.0135   -9.7660   -7.2880 H         1 ACR         0.0257
     62 H18       -18.8248   -9.2003   -8.5101 H         1 ACR         0.0257
     63 H19       -20.5726   -8.8468   -8.7265 H         1 ACR         0.0257
     64 H20       -20.8538   -6.9435   -9.2659 H         1 ACR         0.2029
     65 H21       -20.6869   -5.3306   -8.9830 H         1 ACR         0.2029
     66 H22       -18.4211   -4.2204   -4.9614 H         1 ACR         0.2101
     67 H23       -18.4487   -3.3891   -7.5709 H         1 ACR         0.2102
     68 H24       -21.3856   -8.4344   -0.1725 H         1 ACR         0.0938
     69 H25       -19.1647   -8.7746   -1.0734 H         1 ACR         0.0671
     70 H26       -19.2190   -5.8954   -2.0683 H         1 ACR         0.0648
     71 H27       -19.4017   -8.3434   -3.8708 H         1 ACR         0.0651
     72 H28       -21.5614   -6.3031   -3.1709 H         1 ACR         0.0647
     73 H29       -21.6185   -8.8524   -4.8523 H         1 ACR         0.0584
     74 H30       -21.8393   -7.1654   -5.4286 H         1 ACR         0.0584
     75 H31       -19.3656   -6.1685    0.1131 H         1 ACR         0.2101
     76 H32       -17.2925   -6.5666   -3.1053 H         1 ACR         0.2100
     77 H33       -23.5310   -8.5310   -3.5597 H         1 ACR         0.2095
     78 H34       -25.0630   -4.6154    2.7356 H         1 ACR         0.0935
     79 H35       -22.9149   -5.3670    3.1150 H         1 ACR         0.0671
     80 H36       -21.9082   -4.2191    0.4949 H         1 ACR         0.0648
     81 H37       -22.5208   -7.1771    1.0178 H         1 ACR         0.0651
     82 H38       -23.8106   -5.0504   -0.7593 H         1 ACR         0.0647
     83 H39       -24.6280   -7.9658   -0.3740 H         1 ACR         0.0584
     84 H40       -23.9121   -7.2392   -1.8525 H         1 ACR         0.0584
     85 H41       -24.4717   -2.5711    1.7900 H         1 ACR         0.2126
     86 H42       -22.4768   -2.7196    2.1174 H         1 ACR         0.2101
     87 H43       -20.0726   -5.4792    1.0260 H         1 ACR         0.2100
     88 H44       -26.3899   -6.4550   -0.6331 H         1 ACR         0.2095
@<TRIPOS>BOND
     1    1    2 1  
     2    1    7 1  
     3   18    1 1  
     4    2    3 1  
     5    2    8 1  
     6    3    4 1  
     7    3    9 1  
     8    5    4 1  
     9    4   10 1  
    10    5    6 1  
    11    7    5 2  
    12    6   11 1  
    13   12   13 1  
    14   12   21 1  
    15   30   12 1  
    16   13   14 1  
    17   13   19 1  
    18   14   15 1  
    19   14   20 1  
    20   16   15 1  
    21   15   18 1  
    22   16   17 1  
    23   21   16 1  
    24   22   23 1  
    25   22   31 1  
    26   42   22 1  
    27   23   24 1  
    28   23   28 1  
    29   24   25 1  
    30   24   29 1  
    31   26   25 1  
    32   25   30 1  
    33   26   27 1  
    34   31   26 1  
    35   27   32 1  
    36   34   33 1  
    37   33   39 1  
    38   33   43 1  
    39   35   34 1  
    40   34   40 1  
    41   36   35 1  
    42   35   41 1  
    43   36   37 1  
    44   36   42 1  
    45   37   38 1  
    46   37   43 1  
    47   38   44 1  
    48    1   45 1  
    49    2   46 1  
    50    3   47 1  
    51    4   48 1  
    52    6   49 1  
    53    6   50 1  
    54    7   51 1  
    55    8   52 1  
    56    9   53 1  
    57   10   54 1  
    58   11   55 1  
    59   12   56 1  
    60   13   57 1  
    61   14   58 1  
    62   15   59 1  
    63   16   60 1  
    64   17   61 1  
    65   17   62 1  
    66   17   63 1  
    67   18   64 1  
    68   18   65 1  
    69   19   66 1  
    70   20   67 1  
    71   22   68 1  
    72   23   69 1  
    73   24   70 1  
    74   25   71 1  
    75   26   72 1  
    76   27   73 1  
    77   27   74 1  
    78   28   75 1  
    79   29   76 1  
    80   32   77 1  
    81   33   78 1  
    82   34   79 1  
    83   35   80 1  
    84   36   81 1  
    85   37   82 1  
    86   38   83 1  
    87   38   84 1  
    88   39   85 1  
    89   40   86 1  
    90   41   87 1  
    91   44   88 1  
@<TRIPOS>SUBSTRUCTURE
     1 ACR         1

