2qmj_ligand
  -I-interpret- 

 88 91  0  0  0  0  0  0  0  0999 V2000
  -19.6710   -5.9900  -10.6110 C   0  0  0  0  0
  -20.7300   -5.6830  -11.6900 C   0  0  0  0  0
  -21.5600   -6.9360  -11.9710 C   0  0  0  0  0
  -20.6670   -7.9640  -12.6390 C   0  0  0  0  0
  -19.3470   -8.1050  -11.9110 C   0  0  0  0  0
  -18.5890   -9.3680  -12.1800 C   0  0  0  0  0
  -18.8330   -7.1680  -11.0990 C   0  0  0  0  0
  -21.5980   -4.6430  -11.2610 O   0  0  0  0  0
  -22.7950   -6.7250  -12.7430 O   0  0  0  0  0
  -21.3410   -9.2220  -12.6550 O   0  0  0  0  0
  -17.8570   -9.0520  -13.3800 O   0  0  0  0  0
  -18.2170   -6.7430   -5.3860 C   0  0  0  0  0
  -17.8400   -5.5560   -6.2710 C   0  0  0  0  0
  -18.9740   -5.2480   -7.2620 C   0  0  0  0  0
  -19.2400   -6.4670   -8.1460 C   0  0  0  0  0
  -19.5940   -7.6510   -7.2210 C   0  0  0  0  0
  -19.7630   -8.9570   -7.9900 C   0  0  0  0  0
  -20.2000   -6.1770   -9.2330 N   0  3  0  0  0
  -17.6240   -4.4180   -5.4390 O   0  0  0  0  0
  -18.6180   -4.1570   -8.1040 O   0  0  0  0  0
  -18.5410   -7.8430   -6.2420 O   0  0  0  0  0
  -21.0570   -7.7380   -0.9580 C   0  0  0  0  0
  -19.5340   -7.7390   -1.0400 C   0  0  0  0  0
  -19.0200   -6.9610   -2.2550 C   0  0  0  0  0
  -19.7220   -7.3380   -3.5600 C   0  0  0  0  0
  -21.2420   -7.3380   -3.3630 C   0  0  0  0  0
  -21.9950   -7.8540   -4.5850 C   0  0  0  0  0
  -19.0400   -7.0610    0.1090 O   0  0  0  0  0
  -17.6040   -7.1280   -2.4050 O   0  0  0  0  0
  -19.3450   -6.3910   -4.5600 O   0  0  0  0  0
  -21.5930   -8.1540   -2.2260 O   0  0  0  0  0
  -23.3970   -7.9360   -4.2880 O   0  0  0  0  0
  -24.4360   -4.5400    1.8350 C   0  0  0  0  0
  -22.9600   -4.6230    2.3060 C   0  0  0  0  0
  -21.9930   -5.0600    1.1990 C   0  0  0  0  0
  -22.4870   -6.2690    0.3980 C   0  0  0  0  0
  -23.9070   -5.9410   -0.1210 C   0  0  0  0  0
  -24.5410   -7.0460   -0.9710 C   0  0  0  0  0
  -24.7250   -3.2780    1.2080 O   0  0  0  0  0
  -22.4900   -3.3600    2.8190 O   0  0  0  0  0
  -20.6790   -5.3120    1.7380 O   0  0  0  0  0
  -21.5170   -6.4160   -0.6480 O   0  0  0  0  0
  -24.8190   -5.6180    0.9550 O   0  0  0  0  0
  -25.8490   -6.6220   -1.3960 O   0  0  0  0  0
  -19.0058   -5.1154  -10.5600 H   0  0  0  0  0
  -20.2199   -5.3694  -12.6128 H   0  0  0  0  0
  -21.8687   -7.3406  -10.9958 H   0  0  0  0  0
  -20.4687   -7.6455  -13.6730 H   0  0  0  0  0
  -19.2733  -10.2133  -12.3445 H   0  0  0  0  0
  -17.9065   -9.6047  -11.3505 H   0  0  0  0  0
  -17.7946   -7.2504  -10.7814 H   0  0  0  0  0
  -22.2340   -4.4614  -11.9429 H   0  0  0  0  0
  -23.3350   -6.0783  -12.3040 H   0  0  0  0  0
  -22.1687   -9.1307  -13.1123 H   0  0  0  0  0
  -17.3351   -9.8026  -13.6381 H   0  0  0  0  0
  -17.3668   -7.0138   -4.7428 H   0  0  0  0  0
  -16.9206   -5.7896   -6.8279 H   0  0  0  0  0
  -19.8849   -4.9948   -6.6997 H   0  0  0  0  0
  -18.2939   -6.7267   -8.6435 H   0  0  0  0  0
  -20.5361   -7.4190   -6.7026 H   0  0  0  0  0
  -20.0135   -9.7660   -7.2880 H   0  0  0  0  0
  -18.8248   -9.2003   -8.5101 H   0  0  0  0  0
  -20.5726   -8.8468   -8.7265 H   0  0  0  0  0
  -20.8538   -6.9435   -9.2659 H   0  0  0  0  0
  -20.6869   -5.3306   -8.9830 H   0  0  0  0  0
  -18.4211   -4.2204   -4.9614 H   0  0  0  0  0
  -18.4487   -3.3891   -7.5709 H   0  0  0  0  0
  -21.3856   -8.4344   -0.1725 H   0  0  0  0  0
  -19.1647   -8.7746   -1.0734 H   0  0  0  0  0
  -19.2190   -5.8954   -2.0683 H   0  0  0  0  0
  -19.4017   -8.3434   -3.8708 H   0  0  0  0  0
  -21.5614   -6.3031   -3.1709 H   0  0  0  0  0
  -21.6185   -8.8524   -4.8523 H   0  0  0  0  0
  -21.8393   -7.1654   -5.4286 H   0  0  0  0  0
  -19.3656   -6.1685    0.1131 H   0  0  0  0  0
  -17.2925   -6.5666   -3.1053 H   0  0  0  0  0
  -23.5310   -8.5310   -3.5597 H   0  0  0  0  0
  -25.0630   -4.6154    2.7356 H   0  0  0  0  0
  -22.9149   -5.3670    3.1150 H   0  0  0  0  0
  -21.9082   -4.2191    0.4949 H   0  0  0  0  0
  -22.5208   -7.1771    1.0178 H   0  0  0  0  0
  -23.8106   -5.0504   -0.7593 H   0  0  0  0  0
  -24.6280   -7.9658   -0.3740 H   0  0  0  0  0
  -23.9121   -7.2392   -1.8525 H   0  0  0  0  0
  -24.4717   -2.5711    1.7900 H   0  0  0  0  0
  -22.4768   -2.7196    2.1174 H   0  0  0  0  0
  -20.0726   -5.4792    1.0260 H   0  0  0  0  0
  -26.3899   -6.4550   -0.6331 H   0  0  0  0  0
  1  2  1  0  0  0
  1  7  1  0  0  0
 18  1  1  0  0  0
  2  3  1  0  0  0
  2  8  1  0  0  0
  3  4  1  0  0  0
  3  9  1  0  0  0
  5  4  1  0  0  0
  4 10  1  0  0  0
  5  6  1  0  0  0
  7  5  2  0  0  0
  6 11  1  0  0  0
 12 13  1  0  0  0
 12 21  1  0  0  0
 30 12  1  0  0  0
 13 14  1  0  0  0
 13 19  1  0  0  0
 14 15  1  0  0  0
 14 20  1  0  0  0
 16 15  1  0  0  0
 15 18  1  0  0  0
 16 17  1  0  0  0
 21 16  1  0  0  0
 22 23  1  0  0  0
 22 31  1  0  0  0
 42 22  1  0  0  0
 23 24  1  0  0  0
 23 28  1  0  0  0
 24 25  1  0  0  0
 24 29  1  0  0  0
 26 25  1  0  0  0
 25 30  1  0  0  0
 26 27  1  0  0  0
 31 26  1  0  0  0
 27 32  1  0  0  0
 34 33  1  0  0  0
 33 39  1  0  0  0
 33 43  1  0  0  0
 35 34  1  0  0  0
 34 40  1  0  0  0
 36 35  1  0  0  0
 35 41  1  0  0  0
 36 37  1  0  0  0
 36 42  1  0  0  0
 37 38  1  0  0  0
 37 43  1  0  0  0
 38 44  1  0  0  0
  1 45  1  0  0  0
  2 46  1  0  0  0
  3 47  1  0  0  0
  4 48  1  0  0  0
  6 49  1  0  0  0
  6 50  1  0  0  0
  7 51  1  0  0  0
  8 52  1  0  0  0
  9 53  1  0  0  0
 10 54  1  0  0  0
 11 55  1  0  0  0
 12 56  1  0  0  0
 13 57  1  0  0  0
 14 58  1  0  0  0
 15 59  1  0  0  0
 16 60  1  0  0  0
 17 61  1  0  0  0
 17 62  1  0  0  0
 17 63  1  0  0  0
 18 64  1  0  0  0
 18 65  1  0  0  0
 19 66  1  0  0  0
 20 67  1  0  0  0
 22 68  1  0  0  0
 23 69  1  0  0  0
 24 70  1  0  0  0
 25 71  1  0  0  0
 26 72  1  0  0  0
 27 73  1  0  0  0
 27 74  1  0  0  0
 28 75  1  0  0  0
 29 76  1  0  0  0
 32 77  1  0  0  0
 33 78  1  0  0  0
 34 79  1  0  0  0
 35 80  1  0  0  0
 36 81  1  0  0  0
 37 82  1  0  0  0
 38 83  1  0  0  0
 38 84  1  0  0  0
 39 85  1  0  0  0
 40 86  1  0  0  0
 41 87  1  0  0  0
 44 88  1  0  0  0
M  END
$$$$
