2g70_ligand
  -I-interpret- 

 28 29  0  0  0  0  0  0  0  0999 V2000
   28.1360   45.6050   18.3040 C   0  0  0  0  0
   27.7780   44.8180   19.5660 C   0  0  0  0  0
   26.3510   41.2810   13.7810 O   0  0  0  0  0
   27.6300   42.6390   18.4790 C   0  0  0  0  0
   27.0770   42.7130   16.0320 C   0  0  0  0  0
   26.9060   43.3660   14.8170 C   0  0  0  0  0
   27.1300   44.7380   14.7430 C   0  0  0  0  0
   27.5270   45.4440   15.8750 C   0  0  0  0  0
   27.6070   45.0230   21.9680 O   0  0  0  0  0
   28.2660   45.5540   20.8160 C   0  0  0  0  0
   27.7000   44.7860   17.0870 C   0  0  0  0  0
   26.5910   42.6800   13.7180 N   0  0  0  0  0
   26.4880   43.3420   12.4650 O   0  0  0  0  0
   27.4730   43.4150   17.1690 C   0  0  0  0  0
   28.3270   43.4550   19.4880 N   0  3  0  0  0
   29.2221   45.7757   18.2677 H   0  0  0  0  0
   27.6127   46.5725   18.3080 H   0  0  0  0  0
   26.6823   44.7406   19.6243 H   0  0  0  0  0
   28.2117   41.7249   18.2896 H   0  0  0  0  0
   26.6342   42.3677   18.8594 H   0  0  0  0  0
   26.9003   41.6454   16.0960 H   0  0  0  0  0
   26.9949   45.2578   13.8014 H   0  0  0  0  0
   27.7020   46.5119   15.8110 H   0  0  0  0  0
   27.9102   45.4801   22.7437 H   0  0  0  0  0
   28.0366   46.6258   20.7237 H   0  0  0  0  0
   29.3527   45.4192   20.9203 H   0  0  0  0  0
   28.2300   43.0126   20.3885 H   0  0  0  0  0
   29.3035   43.5104   19.2443 H   0  0  0  0  0
  2  1  1  0  0  0
  1 11  1  0  0  0
  2 10  1  0  0  0
 15  2  1  0  0  0
 12  3  2  0  0  0
 14  4  1  0  0  0
  4 15  1  0  0  0
  6  5  4  0  0  0
  5 14  4  0  0  0
  6  7  4  0  0  0
  6 12  1  0  0  0
  7  8  4  0  0  0
  8 11  4  0  0  0
 10  9  1  0  0  0
 11 14  4  0  0  0
 12 13  2  0  0  0
  1 16  1  0  0  0
  1 17  1  0  0  0
  2 18  1  0  0  0
  4 19  1  0  0  0
  4 20  1  0  0  0
  5 21  1  0  0  0
  7 22  1  0  0  0
  8 23  1  0  0  0
  9 24  1  0  0  0
 10 25  1  0  0  0
 10 26  1  0  0  0
 15 27  1  0  0  0
 15 28  1  0  0  0
M  END
$$$$
