2obf_ligand
  -I-interpret- 

 41 43  0  0  0  0  0  0  0  0999 V2000
   29.2550   44.8670   22.6150 O   0  0  0  0  0
   29.6460   45.6380   21.4750 C   0  0  0  0  0
   29.0460   45.0010   20.2210 C   0  0  0  0  0
   29.6530   43.6830   19.9820 N   0  3  0  0  0
   28.8950   42.9490   18.9590 C   0  0  0  0  0
   28.7060   43.7940   17.6930 C   0  0  0  0  0
   28.3080   43.1710   16.5160 C   0  0  0  0  0
   28.0810   43.9240   15.3680 C   0  0  0  0  0
   28.2560   45.3040   15.3970 C   0  0  0  0  0
   28.6580   45.9300   16.5730 C   0  0  0  0  0
   28.8850   45.1770   17.7230 C   0  0  0  0  0
   29.3290   45.8840   19.0030 C   0  0  0  0  0
   27.5650   43.1380   13.8930 S   0  0  0  0  0
   26.1410   42.9690   13.9040 O   0  0  0  0  0
   28.2170   41.7910   13.7900 O   0  0  0  0  0
   28.0200   44.0390   12.6150 N   0  0  0  0  0
   27.0810   44.8330   11.8090 C   0  0  0  0  0
   26.0370   45.5360   12.4050 C   0  0  0  0  0
   25.2080   46.3430   11.6290 C   0  0  0  0  0
   25.4190   46.4510   10.2550 C   0  0  0  0  0
   26.4570   45.7420    9.6600 C   0  0  0  0  0
   27.2860   44.9320   10.4360 C   0  0  0  0  0
   24.4170   47.4760    9.2870 Cl  0  0  0  0  0
   29.6233   45.2553   23.3999 H   0  0  0  0  0
   30.7430   45.6498   21.3951 H   0  0  0  0  0
   29.2749   46.6681   21.5802 H   0  0  0  0  0
   27.9598   44.8894   20.3539 H   0  0  0  0  0
   29.6497   43.1550   20.8406 H   0  0  0  0  0
   30.6025   43.8066   19.6671 H   0  0  0  0  0
   27.9071   42.6857   19.3649 H   0  0  0  0  0
   29.4411   42.0304   18.6985 H   0  0  0  0  0
   28.1741   42.0956   16.4923 H   0  0  0  0  0
   28.0792   45.8916   14.5034 H   0  0  0  0  0
   28.7947   47.0051   16.5943 H   0  0  0  0  0
   30.4078   46.0916   18.9477 H   0  0  0  0  0
   28.7781   46.8306   19.1048 H   0  0  0  0  0
   28.9883   44.0530   12.3655 H   0  0  0  0  0
   25.8694   45.4552   13.4729 H   0  0  0  0  0
   24.3958   46.8890   12.0951 H   0  0  0  0  0
   26.6221   45.8190    8.5914 H   0  0  0  0  0
   28.0921   44.3782    9.9685 H   0  0  0  0  0
  1  2  1  0  0  0
  2  3  1  0  0  0
  3  4  1  0  0  0
  3 12  1  0  0  0
  4  5  1  0  0  0
  5  6  1  0  0  0
  6  7  4  0  0  0
  6 11  4  0  0  0
  7  8  4  0  0  0
  8  9  4  0  0  0
  8 13  1  0  0  0
  9 10  4  0  0  0
 10 11  4  0  0  0
 11 12  1  0  0  0
 13 14  2  0  0  0
 13 15  2  0  0  0
 13 16  1  0  0  0
 16 17  1  0  0  0
 17 18  4  0  0  0
 17 22  4  0  0  0
 18 19  4  0  0  0
 19 20  4  0  0  0
 20 21  4  0  0  0
 20 23  1  0  0  0
 21 22  4  0  0  0
  1 24  1  0  0  0
  2 25  1  0  0  0
  2 26  1  0  0  0
  3 27  1  0  0  0
  4 28  1  0  0  0
  4 29  1  0  0  0
  5 30  1  0  0  0
  5 31  1  0  0  0
  7 32  1  0  0  0
  9 33  1  0  0  0
 10 34  1  0  0  0
 12 35  1  0  0  0
 12 36  1  0  0  0
 16 37  1  0  0  0
 18 38  1  0  0  0
 19 39  1  0  0  0
 21 40  1  0  0  0
 22 41  1  0  0  0
M  END
$$$$
