2jdy_ligand
  -I-interpret- 

 27 27  0  0  0  0  0  0  0  0999 V2000
   -4.4630  -17.8730   -5.8620 C   0  0  0  0  0
   -3.7120  -17.2790   -4.6580 C   0  0  0  0  0
   -4.6820  -16.6970   -3.6280 C   0  0  0  0  0
   -5.6640  -15.7360   -4.2980 C   0  0  0  0  0
   -6.4030  -16.5370   -5.3640 C   0  0  0  0  0
   -7.5240  -15.7430   -6.0400 C   0  0  0  0  0
   -5.5150  -19.9010   -6.5190 C   0  0  0  0  0
   -5.1300  -19.0560   -5.4150 O   0  0  0  0  0
   -2.8330  -16.2240   -5.1120 O   0  0  0  0  0
   -3.9410  -15.9340   -2.6550 O   0  0  0  0  0
   -6.5470  -15.1530   -3.3100 O   0  0  0  0  0
   -5.4450  -16.9560   -6.3560 O   0  0  0  0  0
   -8.3180  -16.6950   -6.7870 O   0  0  0  0  0
   -3.7495  -18.1168   -6.6629 H   0  0  0  0  0
   -3.1167  -18.0725   -4.1826 H   0  0  0  0  0
   -5.2305  -17.5133   -3.1354 H   0  0  0  0  0
   -5.1073  -14.9220   -4.7853 H   0  0  0  0  0
   -6.8464  -17.4250   -4.8898 H   0  0  0  0  0
   -7.0983  -14.9895   -6.7189 H   0  0  0  0  0
   -8.1453  -15.2440   -5.2817 H   0  0  0  0  0
   -6.0234  -20.7975   -6.1346 H   0  0  0  0  0
   -4.6184  -20.2007   -7.0814 H   0  0  0  0  0
   -6.1968  -19.3492   -7.1828 H   0  0  0  0  0
   -2.3494  -15.8760   -4.3721 H   0  0  0  0  0
   -3.4764  -15.2305   -3.0929 H   0  0  0  0  0
   -6.0334  -14.6682   -2.6747 H   0  0  0  0  0
   -7.7702  -17.1240   -7.4338 H   0  0  0  0  0
  1  2  1  0  0  0
  1  8  1  0  0  0
  1 12  1  0  0  0
  2  3  1  0  0  0
  2  9  1  0  0  0
  3  4  1  0  0  0
  3 10  1  0  0  0
  4  5  1  0  0  0
  4 11  1  0  0  0
  5  6  1  0  0  0
  5 12  1  0  0  0
  6 13  1  0  0  0
  8  7  1  0  0  0
  1 14  1  0  0  0
  2 15  1  0  0  0
  3 16  1  0  0  0
  4 17  1  0  0  0
  5 18  1  0  0  0
  6 19  1  0  0  0
  6 20  1  0  0  0
  7 21  1  0  0  0
  7 22  1  0  0  0
  7 23  1  0  0  0
  9 24  1  0  0  0
 10 25  1  0  0  0
 11 26  1  0  0  0
 13 27  1  0  0  0
M  END
$$$$
