### 
### Created by X-TOOL on Mon Nov 18 13:31:11 2013
### 

@<TRIPOS>MOLECULE
2jdy ligand
   27    27     1     0     0
SMALL
GAST_HUCK


@<TRIPOS>ATOM
      1 C1         -4.4630  -17.8730   -5.8620 C.3       1 MMA         0.1876
      2 C2         -3.7120  -17.2790   -4.6580 C.3       1 MMA         0.1341
      3 C3         -4.6820  -16.6970   -3.6280 C.3       1 MMA         0.1141
      4 C4         -5.6640  -15.7360   -4.2980 C.3       1 MMA         0.1119
      5 C5         -6.4030  -16.5370   -5.3640 C.3       1 MMA         0.1130
      6 C6         -7.5240  -15.7430   -6.0400 C.3       1 MMA         0.0730
      7 C7         -5.5150  -19.9010   -6.5190 C.3       1 MMA         0.0395
      8 O1         -5.1300  -19.0560   -5.4150 O.3       1 MMA        -0.3520
      9 O2         -2.8330  -16.2240   -5.1120 O.3       1 MMA        -0.3841
     10 O3         -3.9410  -15.9340   -2.6550 O.3       1 MMA        -0.3864
     11 O4         -6.5470  -15.1530   -3.3100 O.3       1 MMA        -0.3865
     12 O5         -5.4450  -16.9560   -6.3560 O.3       1 MMA        -0.3405
     13 O6         -8.3180  -16.6950   -6.7870 O.3       1 MMA        -0.3924
     14 H1         -3.7495  -18.1168   -6.6629 H         1 MMA         0.0937
     15 H2         -3.1167  -18.0725   -4.1826 H         1 MMA         0.0671
     16 H3         -5.2305  -17.5133   -3.1354 H         1 MMA         0.0648
     17 H4         -5.1073  -14.9220   -4.7853 H         1 MMA         0.0647
     18 H5         -6.8464  -17.4250   -4.8898 H         1 MMA         0.0647
     19 H6         -7.0983  -14.9895   -6.7189 H         1 MMA         0.0584
     20 H7         -8.1453  -15.2440   -5.2817 H         1 MMA         0.0584
     21 H8         -6.0234  -20.7975   -6.1346 H         1 MMA         0.0525
     22 H9         -4.6184  -20.2007   -7.0814 H         1 MMA         0.0525
     23 H10        -6.1968  -19.3492   -7.1828 H         1 MMA         0.0525
     24 H11        -2.3494  -15.8760   -4.3721 H         1 MMA         0.2101
     25 H12        -3.4764  -15.2305   -3.0929 H         1 MMA         0.2100
     26 H13        -6.0334  -14.6682   -2.6747 H         1 MMA         0.2100
     27 H14        -7.7702  -17.1240   -7.4338 H         1 MMA         0.2095
@<TRIPOS>BOND
     1    1    2 1  
     2    1    8 1  
     3    1   12 1  
     4    2    3 1  
     5    2    9 1  
     6    3    4 1  
     7    3   10 1  
     8    4    5 1  
     9    4   11 1  
    10    5    6 1  
    11    5   12 1  
    12    6   13 1  
    13    8    7 1  
    14    1   14 1  
    15    2   15 1  
    16    3   16 1  
    17    4   17 1  
    18    5   18 1  
    19    6   19 1  
    20    6   20 1  
    21    7   21 1  
    22    7   22 1  
    23    7   23 1  
    24    9   24 1  
    25   10   25 1  
    26   11   26 1  
    27   13   27 1  
@<TRIPOS>SUBSTRUCTURE
     1 MMA         1

